Version 4
SHEET 1 1060 680
WIRE -96 -1152 -240 -1152
WIRE -480 -1120 -768 -1120
WIRE -768 -1056 -768 -1120
WIRE -480 -928 -480 -1120
WIRE -352 -928 -480 -928
WIRE -192 -928 -272 -928
WIRE 32 -928 -192 -928
WIRE 144 -928 112 -928
WIRE -768 -720 -768 -976
WIRE -624 -720 -768 -720
WIRE -96 -704 -96 -1152
WIRE -624 -688 -624 -720
WIRE -192 -688 -192 -928
WIRE -128 -688 -192 -688
WIRE 144 -672 144 -928
WIRE 144 -672 -64 -672
WIRE 208 -672 144 -672
WIRE -128 -656 -432 -656
WIRE -432 -592 -432 -656
WIRE -96 -512 -96 -640
WIRE -96 -512 -432 -512
WIRE -432 -432 -432 -512
FLAG -432 -432 0
FLAG 208 -672 Vout
IOPIN 208 -672 Out
FLAG -624 -688 0
FLAG -240 -1072 0
FLAG -96 -1152 +12v
IOPIN -96 -1152 In
SYMBOL res -256 -944 R90
WINDOW 0 0 56 VBottom 2
WINDOW 3 32 56 VTop 2
SYMATTR InstName R11
SYMATTR Value 5k
SYMBOL res 128 -944 R90
WINDOW 0 0 56 VBottom 2
WINDOW 3 32 56 VTop 2
SYMATTR InstName R12
SYMATTR Value 200k
SYMBOL voltage -768 -1072 R0
WINDOW 123 0 0 Left 0
WINDOW 39 0 0 Left 0
SYMATTR InstName V3
SYMATTR Value 1.28
SYMBOL voltage -432 -608 R0
WINDOW 123 0 0 Left 0
WINDOW 39 0 0 Left 0
SYMATTR InstName V4
SYMATTR Value PULSE(0 2 0 1m 1m 0 1m)
SYMBOL voltage -240 -1168 R0
WINDOW 123 0 0 Left 0
WINDOW 39 0 0 Left 0
SYMATTR InstName V1
SYMATTR Value 12
SYMBOL OpAmps\\LT1413 -96 -736 R0
SYMATTR InstName U2
TEXT -560 -440 Left 2 !.tran 10m
