Version 4
SHEET 1 2068 760
WIRE 320 -16 48 -16
WIRE 592 -16 320 -16
WIRE 672 -16 592 -16
WIRE 944 -16 672 -16
WIRE 1136 -16 944 -16
WIRE 1200 -16 1136 -16
WIRE 1296 -16 1200 -16
WIRE 320 16 320 -16
WIRE 672 16 672 -16
WIRE 944 16 944 -16
WIRE 1200 16 1200 -16
WIRE 48 112 48 -16
WIRE 320 128 320 96
WIRE 416 128 320 128
WIRE 464 128 416 128
WIRE 544 128 528 128
WIRE 672 128 672 96
WIRE 672 128 544 128
WIRE 944 128 944 96
WIRE 1008 128 944 128
WIRE 1024 128 1008 128
WIRE 1200 128 1200 96
WIRE 1200 128 1072 128
WIRE 320 160 320 128
WIRE 672 176 672 128
WIRE 944 176 944 128
WIRE 1200 176 1200 128
WIRE 48 256 48 192
WIRE 320 256 320 240
WIRE 320 256 48 256
WIRE 672 256 320 256
WIRE 784 256 672 256
WIRE 944 256 784 256
WIRE 1200 256 944 256
WIRE 784 272 784 256
WIRE 592 352 592 -16
WIRE 528 368 528 128
WIRE 560 368 528 368
WIRE 1136 368 1136 -16
WIRE 800 384 624 384
WIRE 1072 384 1072 128
WIRE 1104 384 1072 384
WIRE 464 400 464 128
WIRE 560 400 464 400
WIRE 1216 400 1168 400
WIRE 1024 416 1024 128
WIRE 1104 416 1024 416
WIRE 1296 560 1296 -16
WIRE 1216 576 1216 400
WIRE 1264 576 1216 576
WIRE 800 608 800 384
WIRE 1264 608 800 608
FLAG 592 416 0
FLAG 1136 432 0
FLAG 784 272 0
FLAG 1296 624 0
FLAG 416 128 VLDR1
FLAG 544 128 VLDR2
FLAG 1008 128 VLDR3
SYMBOL voltage 48 96 R0
WINDOW 123 0 0 Left 0
WINDOW 39 0 0 Left 0
SYMATTR InstName V1
SYMATTR Value 9V
SYMBOL res 304 0 R0
SYMATTR InstName LDR1
SYMATTR Value 1000K
SYMBOL res 304 144 R0
SYMATTR InstName R2
SYMATTR Value 20k
SYMBOL res 656 160 R0
SYMATTR InstName R1
SYMATTR Value 20K
SYMBOL res 656 0 R0
SYMATTR InstName LDR2
SYMATTR Value 1000K
SYMBOL res 928 0 R0
SYMATTR InstName LDR3
SYMATTR Value 0
SYMBOL res 928 160 R0
SYMATTR InstName R5
SYMATTR Value 20K
SYMBOL res 1184 160 R0
SYMATTR InstName R6
SYMATTR Value 20K
SYMBOL res 1184 0 R0
SYMATTR InstName R7
SYMATTR Value 1000k
SYMBOL OpAmps\\LT1413 592 320 R0
SYMATTR InstName U1
SYMBOL OpAmps\\LT1413 1136 336 R0
SYMATTR InstName U2
SYMBOL OpAmps\\LT1413 1296 528 R0
SYMATTR InstName U3
TEXT 8 744 Left 2 !.tran 1
