Version 4
SHEET 1 1540 804
WIRE 416 -192 256 -192
WIRE 256 -144 256 -192
WIRE -416 -96 -592 -96
WIRE 128 -96 -416 -96
WIRE -592 -48 -592 -96
WIRE 272 32 -144 32
WIRE 416 32 416 -192
WIRE 416 32 272 32
WIRE 960 32 416 32
WIRE 1344 32 960 32
WIRE -144 48 -144 32
WIRE -144 48 -240 48
WIRE -48 48 -144 48
WIRE 1344 64 1344 32
WIRE 1344 80 1344 64
WIRE 272 144 272 32
WIRE -48 160 -48 128
WIRE 64 160 -48 160
WIRE 240 160 64 160
WIRE 960 160 960 32
WIRE 432 176 304 176
WIRE 688 176 512 176
WIRE 128 192 128 -96
WIRE 240 192 128 192
WIRE -48 208 -48 160
WIRE 1344 256 1344 160
WIRE -240 336 -240 48
WIRE -48 336 -240 336
WIRE 272 336 -48 336
WIRE 960 336 960 240
WIRE 1152 336 960 336
WIRE 1296 336 1152 336
WIRE -48 368 -48 336
WIRE 960 448 960 336
WIRE 272 464 272 336
WIRE 128 480 128 192
WIRE 240 480 128 480
WIRE 1344 480 1344 352
WIRE 432 496 304 496
WIRE 688 496 688 176
WIRE 688 496 512 496
WIRE 784 496 688 496
WIRE 896 496 784 496
WIRE -48 512 -48 448
WIRE 80 512 -48 512
WIRE 240 512 80 512
WIRE 688 544 688 496
WIRE -48 560 -48 512
WIRE 960 624 960 544
WIRE 688 688 688 624
WIRE 688 784 688 752
FLAG -48 640 0
FLAG -48 288 0
FLAG 272 208 0
FLAG 272 528 0
FLAG 960 624 0
FLAG 256 -64 0
FLAG -592 32 0
FLAG 1344 480 0
FLAG 1344 64 carga
FLAG 784 496 control
FLAG -416 -96 Fuente
FLAG 1152 336 Vgs
FLAG 64 160 Vref+
FLAG 80 512 Vref-
FLAG 688 784 0
SYMBOL OpAmps\\LT1413 272 112 R0
SYMATTR InstName U1
SYMBOL OpAmps\\LT1413 272 432 R0
SYMATTR InstName U2
SYMBOL res -64 32 R0
SYMATTR InstName R1
SYMATTR Value 1k
SYMBOL res -64 192 R0
SYMATTR InstName R2
SYMATTR Value 5k
SYMBOL res -64 544 R0
SYMATTR InstName R3
SYMATTR Value 5k
SYMBOL res -64 352 R0
SYMATTR InstName R4
SYMATTR Value 25k
SYMBOL res 528 480 R90
WINDOW 0 0 56 VBottom 2
WINDOW 3 32 56 VTop 2
SYMATTR InstName R5
SYMATTR Value 1k
SYMBOL res 528 160 R90
WINDOW 0 0 56 VBottom 2
WINDOW 3 32 56 VTop 2
SYMATTR InstName R6
SYMATTR Value 1k
SYMBOL npn 896 448 R0
SYMATTR InstName Q1
SYMBOL res 944 144 R0
SYMATTR InstName R7
SYMATTR Value 1k
SYMBOL voltage 256 -160 R0
WINDOW 123 0 0 Left 0
WINDOW 39 0 0 Left 0
SYMATTR InstName V1
SYMATTR Value 12
SYMBOL voltage -592 -64 R0
WINDOW 123 0 0 Left 0
WINDOW 39 0 0 Left 0
SYMATTR InstName V2
SYMATTR Value PULSE(0 15 0 .5 .5 0 1)
SYMBOL nmos 1296 256 R0
SYMATTR InstName M1
SYMBOL res 1328 64 R0
SYMATTR InstName R8
SYMATTR Value 10k
SYMBOL res 672 528 R0
SYMATTR InstName R9
SYMATTR Value 330
SYMBOL LED 672 688 R0
SYMATTR InstName D1
TEXT 456 -64 Left 2 ;VCC
TEXT -242 664 Left 2 !.tran 1
TEXT 1456 128 Left 2 ;CARGA
